/*--------------------------------*- C++ -*----------------------------------*\
| =========                 |                                                 |
| \\      /  F ield         | OpenFOAM: The Open Source CFD Toolbox           |
|  \\    /   O peration     | Version:  v2206                                 |
|   \\  /    A nd           | Website:  www.openfoam.com                      |
|    \\/     M anipulation  |                                                 |
\*---------------------------------------------------------------------------*/
FoamFile
{
    version     2.0;
    format      ascii;
    class       dictionary;
    location    "system";
    object      fvSolution;
}
// * * * * * * * * * * * * * * * * * * * * * * * * * * * * * * * * * * * * * //

solvers
{
    PsiReal
    {
        solver          PBiCGStab;
        preconditioner  DIC;//DILU;
        tolerance       1e-06;
        relTol          0;
    }
    PsiImg
    {
        $PsiReal
    }
}

SIMPLE
{
    nNonOrthogonalCorrectors 0;//2;
}


// ************************************************************************* //
